Circuit: * D:\GoogleMT\PROJETOS-MT\MT18 - Projetos Eletrônicos\MT18025-MisturadorDeSinais\LTspice\Simulacao_do_circuito.asc

Direct Newton iteration for .op point succeeded.

Date: Fri Feb  9 15:04:38 2024
Total elapsed time: 0.319 seconds.

tnom = 27
temp = 27
method = modified trap
totiter = 65297
traniter = 65294
tranpoints = 31744
accept = 19280
rejected = 12464
matrix size = 18
fillins = 28
solver = Normal
Avg thread counts: 1.0/1.1/1.1/1.0
Matrix Compiler1: off  [0.8]/0.9/0.9
Matrix Compiler2: off  [0.3]/1.4/0.4

